 &GCHEM_PARM01
  useGUD=.TRUE.,
  nsubtime=1,
 /
