# =========================
# pkg AUTODIFF parameters :
# =========================
#  inAdExact :: get an exact adjoint (no approximation) (def=.True.)
#
 &AUTODIFF_PARM01
# inAdExact = .FALSE.,
 useSEAICEinAdMode = .FALSE.,
# useKPPinAdMode = .FALSE.,
# useGMRediInAdMode = .FALSE.,
 useGGL90inAdMode = .FALSE.,
 useSALT_PLUMEinAdMode = .FALSE.,
 viscFacInAd = 2.,
 &
