#
# ********************************
# Off-line optimization parameters
# ********************************
 &OPTIM
 optimcycle=12,
 &
